/*--------------------------------*- C++ -*----------------------------------*\
|                                                                             |
|    HiSA: High Speed Aerodynamic solver                                      |
|    Copyright (C) 2014-2017 Johan Heyns - CSIR, South Africa                 |
|    Copyright (C) 2014-2017 Oliver Oxtoby - CSIR, South Africa               |
|                                                                             |
\*---------------------------------------------------------------------------*/
FoamFile
{
    version     2.0;
    format      ascii;
    class       dictionary;
    location    "system";
    object      fvSolution;
}
// * * * * * * * * * * * * * * * * * * * * * * * * * * * * * * * * * * * * * //

solvers
{
    "(k|omega|nuTilda|rPseudoDeltaT)"
    {
        solver          smoothSolver;
        smoother        symGaussSeidel;
        tolerance       1e-6;
        relTol          0.1;
        minIter         1;
    }

    "(k|omega|nuTilda|rPseudoDeltaT)Final"
    {
        $nuTilda;
        tolerance       1e-6;
        reltol          0.1;
        minIter         1;
    }

    yPsi
    {
        solver          GAMG;
        smoother        GaussSeidel;
        cacheAgglomeration true;
        nCellsInCoarsestLevel 10;
        agglomerator    faceAreaPair;
        mergeLevels     1;
        tolerance       1e-8;
        relTol          0;
    }
}

relaxationFactors
{
    equations
    {
        "(k|omega|nuTilda)"        0.5;
    }
}

flowSolver
{
    solver            GMRES;
    GMRES
    {
        inviscidJacobian LaxFriedrichs;
        viscousJacobian  laplacian;
        preconditioner   LUSGS;

        maxIter          20;
        nKrylov          8;
        solverTolRel     1e-1 (1e-1 1e-1 1e-1) 1e-1;
    }
}
pseudoTime
{
    nPseudoCorr     10;
	nPseudoCorrMin	8;
    pseudoTol   	1e-3 (1e-3 1e-3 1e-3) 1e-3;
	pseudoCoNum		100;
    pseudoCoNumMax  10000;
	localTimeStepping	True;
}

// ************************************************************************* //
