FoamFile
{
 version 2.0;
 format ascii;
 class volScalarField;
 location 0;
 object alphat;
}

dimensions      [1 -1 -1 0 0 0 0];

internalField   uniform 0;

boundaryField
{
  far_surface
  {
    type calculated;
    value uniform         0;
  }

  robin_surface
  {
//        type            boundaryCorrectedFixedValue;
        type            compressible::alphatWallFunction;  // 30 < y+ < 150 
        value           uniform 0;
  }
  blade000_surface
  {
//        type            boundaryCorrectedFixedValue;
        type            compressible::alphatWallFunction;  // 30 < y+ < 150 
        value           uniform 0;
  }

  blade090_surface
  {
//        type            boundaryCorrectedFixedValue;
        type            compressible::alphatWallFunction;  // 30 < y+ < 150 
        value           uniform 0;
  }
  blade180_surface
  {
//        type            boundaryCorrectedFixedValue;
        type            compressible::alphatWallFunction;  // 30 < y+ < 150 
        value           uniform 0;
  }

  blade270_surface
  {
//        type            boundaryCorrectedFixedValue;
        type            compressible::alphatWallFunction;  // 30 < y+ < 150 
        value           uniform 0;
  }

  #include        "include/cyclicAMI"
}
